7

C    2.50066285  -0.0719157845   0.0000170302289        
N  -0.330936985   0.00182168183  -0.000101044611         
H   3.12241063   0.914746280   1.65106928            
H   3.12254019   0.914729146  -1.65099597            
H   3.09165108  -1.99783290     0.0000509982579         
O  -1.30612894   2.08591434     0.0000298510942         
O  -1.45054716  -2.01113195     0.0000300917412         
       
       

-3.089006    1.978294   -0.173446
-2.058968    2.949385    0.319219
-2.709789    0.980060    0.025506
-3.180659    2.124525   -1.245862
-4.019708    2.171468    0.345147
-0.947841    2.859992   -0.172640
-2.400289    3.752735    1.168917

 1.36737758  -5.03526763e-02  -3.50794379e-05
 2.90016670   5.74921746e-01   1.08302602e+00
 2.90025403   5.74909094e-01  -1.08296387e+00
 2.88259104  -1.33939741e+00   3.87591404e-05
-0.800127289  9.83472054e-01  -3.68259614e-05
-0.867058254 -9.46576143e-01  -3.68157878e-05

       
 -3.05998        1.99692       -0.16742      
 -2.06960        2.93289        0.30838      
 -2.72262        0.95848        0.03623      
 -3.20312        2.12645       -1.26121      
 -4.03520        2.16066        0.34115
 -0.96036        2.90140       -0.13077
 -2.35538        3.73966        1.14048
